ipss.test.plugin.core/testData/psse/v31/ieee9_v31.raw
0,   100.00, 31, 0, 1, 50.00     / PSS(R)E 31 RAW created by rawd31  SAT, FEB 15 2025  21:41
 00/00/01                      100.0  0    0
 0
     1,'BUS-1       ',  16.5000,3,   1,   1,   1,1.04000,   0.0000
     2,'BUS-2       ',  18.0000,2,   1,   1,   1,1.02500,   9.2800
     3,'BUS-3       ',  13.8000,2,   1,   1,   1,1.02500,   4.6600
     4,'BUS-4       ', 230.0000,1,   1,   1,   1,1.02500,  -2.2200
     5,'BUS-5       ', 230.0000,1,   1,   1,   1,0.99500,  -3.9900
     6,'BUS-6       ', 230.0000,1,   1,   1,   1,1.01200,  -3.6900
     7,'BUS-7       ', 230.0000,1,   1,   1,   1,1.02500,   3.7200
     8,'BUS-8       ', 230.0000,1,   1,   1,   1,1.01500,   0.7300
     9,'BUS-9       ', 230.0000,1,   1,   1,   1,1.03200,   1.9700
0 / END OF BUS DATA, BEGIN LOAD DATA
     5,'1 ',1,   1,   1,   125.000,    50.000,     0.000,     0.000,     0.000,     0.000,   1
     6,'1 ',1,   1,   1,    90.000,    30.000,     0.000,     0.000,     0.000,     0.000,   1
     8,'1 ',1,   1,   1,   100.000,    35.000,     0.000,     0.000,     0.000,     0.000,   1
0 / END OF LOAD DATA, BEGIN FIXED SHUNT DATA
0 / END OF FIXED SHUNT DATA, BEGIN GENERATOR DATA
     1,'1 ',    71.640,    27.050,  9999.000, -9999.000,1.04000,     0,   100.000, 0.00000E+0, 4.00000E-2, 0.00000E+0, 0.00000E+0,1.00000,1,  100.0,  9999.000, -9999.000,   1,1.0000
     2,'1 ',   163.000,     6.650,  9999.000, -9999.000,1.02500,     0,   100.000, 0.00000E+0, 8.90000E-2, 0.00000E+0, 0.00000E+0,1.00000,1,  100.0,  9999.000, -9999.000,   1,1.0000
     3,'1 ',    85.000,   -10.860, 99990.000,-99990.000,1.02500,     0,   100.000, 0.00000E+0, 1.07000E-1, 0.00000E+0, 0.00000E+0,1.00000,1,  100.0,  9999.000, -9999.000,   1,1.0000
0 / END OF GENERATOR DATA, BEGIN BRANCH DATA
     4,      5,'0 ', 1.00000E-2, 8.50000E-2,   0.17600,    0.00,    0.00,    0.00,  0.00000,  0.00000,  0.00000,  0.00000,1,2,   0.00,   1,1.0000
     4,      6,'0 ', 1.70000E-2, 9.20000E-2,   0.15800,    0.00,    0.00,    0.00,  0.00000,  0.00000,  0.00000,  0.00000,1,2,   0.00,   1,1.0000
     5,      7,'0 ', 3.20000E-2, 1.61000E-1,   0.30600,    0.00,    0.00,    0.00,  0.00000,  0.00000,  0.00000,  0.00000,1,2,   0.00,   1,1.0000
     6,      9,'0 ', 3.90000E-2, 1.70000E-1,   0.35800,    0.00,    0.00,    0.00,  0.00000,  0.00000,  0.00000,  0.00000,1,2,   0.00,   1,1.0000
     7,      8,'0 ', 8.50000E-3, 7.20000E-2,   0.14900,    0.00,    0.00,    0.00,  0.00000,  0.00000,  0.00000,  0.00000,1,1,   0.00,   1,1.0000
     8,      9,'0 ', 1.19000E-2, 1.00800E-1,   0.20900,    0.00,    0.00,    0.00,  0.00000,  0.00000,  0.00000,  0.00000,1,2,   0.00,   1,1.0000
0 / END OF BRANCH DATA, BEGIN TRANSFORMER DATA
     1,     4,     0,'1 ',1,1,1, 0.00000E+0, 0.00000E+0,2,'GEN1_TO_BUS1_CIRID_1                    ',1,   1,1.0000
 0.00000E+0, 5.67000E-2,   100.00
1.00000,  16.500,   0.000,     0.00,     0.00,     0.00, 0,      0, 1.10000, 0.90000, 1.10000, 0.90000,  33, 0, 0.00000, 0.00000
1.00000, 230.000
     2,     7,     0,'1 ',1,1,1, 0.00000E+0, 0.00000E+0,2,'GEN2_TO_BUS2_CIRID_1                    ',1,   1,1.0000
 0.00000E+0, 6.25000E-2,   100.00
1.00000,  18.000,   0.000,     0.00,     0.00,     0.00, 0,      0, 1.10000, 0.90000, 1.10000, 0.90000,  33, 0, 0.00000, 0.00000
1.00000, 230.000
     3,     9,     0,'1 ',1,1,1, 0.00000E+0, 0.00000E+0,2,'GEN3_TO_BUS3_CIRID_1                    ',1,   1,1.0000
 0.00000E+0, 5.86000E-2,   100.00
1.00000,  13.800,   0.000,     0.00,     0.00,     0.00, 0,      0, 1.10000, 0.90000, 1.10000, 0.90000,  33, 0, 0.00000, 0.00000
1.00000, 230.000
0 / END OF TRANSFORMER DATA, BEGIN AREA DATA
0 / END OF AREA DATA, BEGIN TWO-TERMINAL DC DATA
0 / END OF TWO-TERMINAL DC DATA, BEGIN VSC DC LINE DATA
0 / END OF VSC DC LINE DATA, BEGIN IMPEDANCE CORRECTION DATA
0 / END OF IMPEDANCE CORRECTION DATA, BEGIN MULTI-TERMINAL DC DATA
0 / END OF MULTI-TERMINAL DC DATA, BEGIN MULTI-SECTION LINE DATA
0 / END OF MULTI-SECTION LINE DATA, BEGIN ZONE DATA
0 / END OF ZONE DATA, BEGIN INTER-AREA TRANSFER DATA
0 / END OF INTER-AREA TRANSFER DATA, BEGIN OWNER DATA
0 / END OF OWNER DATA, BEGIN FACTS DEVICE DATA
0 / END OF FACTS DEVICE DATA, BEGIN SWITCHED SHUNT DATA
0 / END OF SWITCHED SHUNT DATA
Q
